
THERMOSTAT::{"chipName":"esp32","chipId":"9efc8ad4","tempF":71,"updatedAt":"2024-04-20T01:49:27.835Z","itemType":"THERMOSTAT"}
  HEATER_0::{"chipId":"d0fc8ad4","zoneId":"home","heaterPinVal":0,"cabTempF":85,"cabHumidity":25,"updatedAt":"2024-04-20T01:49:29.032Z","itemType":"HEATER"}
THERMOSTAT::{"chipName":"esp32","chipId":"9efc8ad4","tempF":70,"updatedAt":"2024-04-20T02:40:44.422Z","itemType":"THERMOSTAT"}
THERMOSTAT::{"chipName":"esp32","chipId":"9efc8ad4","tempF":69,"updatedAt":"2024-04-20T03:49:02.746Z","itemType":"THERMOSTAT"}
THERMOSTAT::{"chipName":"esp32","chipId":"9efc8ad4","tempF":70,"updatedAt":"2024-04-20T04:01:19.046Z","itemType":"THERMOSTAT"}
THERMOSTAT::{"chipName":"esp32","chipId":"9efc8ad4","tempF":69,"updatedAt":"2024-04-20T04:03:46.923Z","itemType":"THERMOSTAT"}
THERMOSTAT::{"chipName":"esp32","chipId":"9efc8ad4","tempF":70,"updatedAt":"2024-04-20T04:05:19.425Z","itemType":"THERMOSTAT"}
THERMOSTAT::{"chipName":"esp32","chipId":"9efc8ad4","tempF":69,"updatedAt":"2024-04-20T04:21:42.890Z","itemType":"THERMOSTAT"}
THERMOSTAT::{"chipName":"esp32","chipId":"9efc8ad4","tempF":70,"updatedAt":"2024-04-20T04:23:15.425Z","itemType":"THERMOSTAT"}
THERMOSTAT::{"chipName":"esp32","chipId":"9efc8ad4","tempF":69,"updatedAt":"2024-04-20T04:24:09.247Z","itemType":"THERMOSTAT"}
THERMOSTAT::{"chipName":"esp32","chipId":"9efc8ad4","tempF":70,"updatedAt":"2024-04-20T04:25:41.591Z","itemType":"THERMOSTAT"}
THERMOSTAT::{"chipName":"esp32","chipId":"9efc8ad4","tempF":69,"updatedAt":"2024-04-20T04:25:44.679Z","itemType":"THERMOSTAT"}
THERMOSTAT::{"chipName":"esp32","chipId":"9efc8ad4","tempF":68,"updatedAt":"2024-04-20T05:09:03.533Z","itemType":"THERMOSTAT"}
THERMOSTAT::{"chipName":"esp32","chipId":"9efc8ad4","tempF":67,"updatedAt":"2024-04-20T05:11:03.456Z","itemType":"THERMOSTAT"}
THERMOSTAT::{"chipName":"esp32","chipId":"9efc8ad4","tempF":68,"updatedAt":"2024-04-20T05:16:03.403Z","itemType":"THERMOSTAT"}
THERMOSTAT::{"chipName":"esp32","chipId":"9efc8ad4","tempF":69,"updatedAt":"2024-04-20T05:35:09.882Z","itemType":"THERMOSTAT"}
THERMOSTAT::{"chipName":"esp32","chipId":"9efc8ad4","tempF":68,"updatedAt":"2024-04-20T05:54:13.831Z","itemType":"THERMOSTAT"}
THERMOSTAT::{"chipName":"esp32","chipId":"9efc8ad4","tempF":69,"updatedAt":"2024-04-20T05:55:46.170Z","itemType":"THERMOSTAT"}
THERMOSTAT::{"chipName":"esp32","chipId":"9efc8ad4","tempF":68,"updatedAt":"2024-04-20T05:57:59.853Z","itemType":"THERMOSTAT"}
THERMOSTAT::{"chipName":"esp32","chipId":"9efc8ad4","tempF":69,"updatedAt":"2024-04-20T06:13:22.601Z","itemType":"THERMOSTAT"}
THERMOSTAT::{"chipName":"esp32","chipId":"9efc8ad4","tempF":68,"updatedAt":"2024-04-20T06:19:34.902Z","itemType":"THERMOSTAT"}
THERMOSTAT::{"chipName":"esp32","chipId":"9efc8ad4","tempF":67,"updatedAt":"2024-04-20T07:25:23.299Z","itemType":"THERMOSTAT"}
THERMOSTAT::{"chipName":"esp32","chipId":"9efc8ad4","tempF":66,"updatedAt":"2024-04-20T08:34:16.160Z","itemType":"THERMOSTAT"}
THERMOSTAT::{"chipName":"esp32","chipId":"9efc8ad4","tempF":67,"updatedAt":"2024-04-20T08:35:53.069Z","itemType":"THERMOSTAT"}
THERMOSTAT::{"chipName":"esp32","chipId":"9efc8ad4","tempF":66,"updatedAt":"2024-04-20T08:36:00.762Z","itemType":"THERMOSTAT"}
  HEATER_1::{"chipId":"d0fc8ad4","zoneId":"home","heaterPinVal":1,"cabTempF":79,"cabHumidity":26,"updatedAt":"2024-04-20T09:49:59.032Z","itemType":"HEATER"}
THERMOSTAT::{"chipName":"esp32","chipId":"9efc8ad4","tempF":65,"updatedAt":"2024-04-20T09:49:59.822Z","itemType":"THERMOSTAT"}
THERMOSTAT::{"chipName":"esp32","chipId":"9efc8ad4","tempF":66,"updatedAt":"2024-04-20T09:51:40.077Z","itemType":"THERMOSTAT"}
  HEATER_0::{"chipId":"d0fc8ad4","zoneId":"home","heaterPinVal":0,"cabTempF":106,"cabHumidity":19,"updatedAt":"2024-04-20T10:30:49.044Z","itemType":"HEATER"}
THERMOSTAT::{"chipName":"esp32","chipId":"9efc8ad4","tempF":67,"updatedAt":"2024-04-20T10:30:50.422Z","itemType":"THERMOSTAT"}
THERMOSTAT::{"chipName":"esp32","chipId":"9efc8ad4","tempF":66,"updatedAt":"2024-04-20T10:34:18.268Z","itemType":"THERMOSTAT"}
THERMOSTAT::{"chipName":"esp32","chipId":"9efc8ad4","tempF":67,"updatedAt":"2024-04-20T10:35:50.625Z","itemType":"THERMOSTAT"}
THERMOSTAT::{"chipName":"esp32","chipId":"9efc8ad4","tempF":66,"updatedAt":"2024-04-20T10:35:56.772Z","itemType":"THERMOSTAT"}
  HEATER_1::{"chipId":"d0fc8ad4","zoneId":"home","heaterPinVal":1,"cabTempF":91,"cabHumidity":25,"updatedAt":"2024-04-20T11:22:54.041Z","itemType":"HEATER"}
THERMOSTAT::{"chipName":"esp32","chipId":"9efc8ad4","tempF":65,"updatedAt":"2024-04-20T11:22:54.221Z","itemType":"THERMOSTAT"}
THERMOSTAT::{"chipName":"esp32","chipId":"9efc8ad4","tempF":66,"updatedAt":"2024-04-20T11:26:39.185Z","itemType":"THERMOSTAT"}